/PSS(R)E 34
COM
COM CONTINGENCY description file entry created by PSS(R)E Config File Builder
COM
SINGLE BRANCH IN SUBSYSTEM 'MAIN'
SINGLE TIE FROM SUBSYSTEM 'MAIN'
DOUBLE TIE FROM SUBSYSTEM 'MAIN'
PARALLEL TIE FROM SUBSYSTEM 'MAIN'
END
